<configuration>
    <!-- Placeholder for SUMO config -->
</configuration>